&nhyd_model
   config_init_case = 7 
   config_start_time      = '2019-05-01_00:00:00'
   config_stop_time       = '2019-05-01_00:00:00'
   config_theta_adv_order = 3
   config_coef_3rd_order = 0.25
/

&dimensions
   config_nvertlevels     = 55
   config_nsoillevels     = 4
   config_nfglevels       = 34
   config_nfgsoillevels   = 4
/

&data_sources
   config_geog_data_path  = '/glade/work/wrfhelp/WPS_GEOG/'
   config_met_prefix      = 'FILE'
   config_sfc_prefix      = 'FILE'
   config_fg_interval     = 86400
   config_landuse_data = 'USGS'
   config_use_spechumd = true
/

&vertical_grid
   config_ztop            = 30000.0 
   config_nsmterrain      = 1
   config_smooth_surfaces = .true.
   config_dzmin = 0.3
   config_nsm = 30
   config_tc_vertical_grid = .true.
/

&interpolation_control
    config_extrap_airtemp = 'linear'
/

&preproc_stages
   config_static_interp   = .false. 
   config_native_gwd_static = .false.
   config_vertical_grid   = .true.
   config_met_interp      = .true.
   config_input_sst       = .false.
   config_frac_seaice     = .true.
/

&io
   config_pio_num_iotasks    = 8
   config_pio_stride         = 36
/
   config_pio_num_iotasks    = 1 !36
   config_pio_stride         = 1 !16

&decomposition
   config_block_decomp_file_prefix = 'x1.2621442.graph.info.part.'
/
