&nhyd_model
   config_dt = 60.0
   config_run_duration = '6:00:00'
   config_start_time   = '2019-04-29_00:00:00'
   config_stop_time    = '2019-04-29_06:00:00'
   config_split_dynamics_transport = .true.
   config_number_of_sub_steps = 2
   config_dynamics_split_steps = 3
   config_h_mom_eddy_visc2    = 0.0
   config_h_mom_eddy_visc4    = 0.0
   config_v_mom_eddy_visc2    = 0.0
   config_h_theta_eddy_visc2  = 0.0
   config_h_theta_eddy_visc4  = 0.0
   config_v_theta_eddy_visc2  = 0.0
   config_horiz_mixing        = '2d_smagorinsky'
   config_len_disp            = 15000.
   config_visc4_2dsmag        = 0.05
   config_w_adv_order         = 3
   config_theta_adv_order     = 3
   config_scalar_adv_order    = 3
   config_u_vadv_order        = 3
   config_w_vadv_order        = 3
   config_theta_vadv_order    = 3
   config_scalar_vadv_order   = 3
   config_scalar_advection    = .true.
   config_positive_definite   = .false.
   config_monotonic           = .true.
   config_coef_3rd_order      = 0.25
   config_epssm               = 0.1
   config_smdiv               = 0.1
   config_apvm_upwinding      = 0.0
/

&damping
   config_zd = 22000.0
   config_xnutr = 0.2
/

&io
   config_pio_num_iotasks     = 8 ! 96 ! 98 ! 135
   config_pio_stride          = 36 ! 36 !72  ! ! In general, set this to a multiple of the number of MPI tasks per node
/
   config_pio_num_iotasks     = 1 ! 96 ! 98 ! 135
   config_pio_stride          = 1 ! 36 !72  ! ! In general, set this to a multiple of the number of MPI tasks per node

&decomposition
   config_block_decomp_file_prefix = 'x1.2621442.graph.info.part.'
/

&restart
   config_do_restart = .false.    ! Shouldn't be true for very first cycle, but true all other times, unless cold start (then false)
   config_do_DAcycling = .true.
/

&printout
    config_print_global_minmax_vel  = true
    config_print_detailed_minmax_vel = true
    config_print_global_minmax_sca  = true
/

&limited area
   config_apply_lbcs = false 
/

&IAU
    config_IAU_option = 'off'
    config_IAU_window_length_s = 21600.
/

&physics
   config_sst_update          = .false.
   config_sstdiurn_update     = .false.
   config_deepsoiltemp_update = .false.
   config_radtlw_interval     = '00:15:00'
   config_radtsw_interval     = '00:15:00'
   config_o3climatology       = .true.
   config_bucket_update       = 'none' !'1_00:00:00'
   config_microp_re           = .true.
   config_sfc_albedo          = .true.
   config_sfc_snowalbedo      = .true.
   config_frac_seaice         = .true.
   config_physics_suite       = 'convection_permitting'
   config_convection_scheme   = 'cu_ntiedtke'
/
   config_lightning_flash     = true
   config_microp_scheme       = 'mp_thompson'
   config_lsm_scheme          = 'noah'
   config_pbl_scheme          = 'bl_mynn'
   config_gwdo_scheme         = 'ysu_gwdo'
   config_radt_cld_scheme     = 'cld_fraction'
   config_radt_lw_scheme      = 'rrtmg_lw'
   config_radt_sw_scheme      = 'rrtmg_sw'
   config_sfclayer_scheme     = 'sf_mynn'
   num_soil_layers            = 4
   config_bucket_rainc        = 100.0
   config_bucket_rainnc       = 100.0
   config_bucket_radt         = 1.0e9
   config_conv_interval       = 'none'
   config_pbl_interval        = 'none'
   config_n_microp            = 1

